<?xml version="1.0" encoding="UTF-8"?>

<vehicleDefinitions xmlns="http://www.matsim.org/files/dtd" xmlns:xsi="http://www.w3.org/2001/XMLSchema-instance"
                    xsi:schemaLocation="http://www.matsim.org/files/dtd http://www.matsim.org/files/dtd/vehicleDefinitions_v1.0.xsd">
    <vehicleType id="Bus">
        <description>Bus</description>
        <capacity>
            <seats persons="40"/>
            <standingRoom persons="10"/>
        </capacity>
        <length meter="24.0"/>
        <passengerCarEquivalents pce="3.0"/>
    </vehicleType>
    <vehicle id="ve_0_bus" type="Bus"/>
    <vehicle id="ve_1_bus" type="Bus"/>
</vehicleDefinitions>